Version 4.1
SHEET 1 3124 1284
WIRE -1920 -160 -2032 -160
WIRE -1792 -160 -1840 -160
WIRE -1664 -160 -1728 -160
WIRE -1120 -160 -1232 -160
WIRE -992 -160 -1040 -160
WIRE -864 -160 -928 -160
WIRE -352 -144 -480 -144
WIRE -176 -144 -352 -144
WIRE 768 -144 -96 -144
WIRE 1280 -144 768 -144
WIRE -1664 -80 -1664 -160
WIRE -1632 -80 -1664 -80
WIRE -1520 -80 -1552 -80
WIRE -864 -80 -864 -160
WIRE -832 -80 -864 -80
WIRE -720 -80 -752 -80
WIRE -2032 0 -2032 -160
WIRE -1920 0 -2032 0
WIRE -1792 0 -1840 0
WIRE -1664 0 -1664 -80
WIRE -1664 0 -1728 0
WIRE -1232 0 -1232 -160
WIRE -1120 0 -1232 0
WIRE -992 0 -1040 0
WIRE -864 0 -864 -80
WIRE -864 0 -928 0
WIRE -2032 16 -2032 0
WIRE -1232 16 -1232 0
WIRE 144 80 144 32
WIRE 208 80 208 32
WIRE 240 80 240 32
WIRE 288 80 288 32
WIRE 368 80 368 16
WIRE 464 80 464 32
WIRE 512 80 512 32
WIRE 544 80 544 32
WIRE 608 80 608 32
WIRE 768 80 768 -144
WIRE -2032 128 -2032 96
WIRE -1760 128 -2032 128
WIRE -1232 128 -1232 96
WIRE -960 128 -1232 128
WIRE 976 128 928 128
WIRE 1280 144 1280 -144
WIRE -2032 176 -2032 128
WIRE -1232 176 -1232 128
WIRE 976 176 928 176
WIRE -352 208 -352 -144
WIRE 976 240 928 240
WIRE -2032 288 -2032 256
WIRE -1232 288 -1232 256
WIRE 976 304 928 304
WIRE -1920 336 -2032 336
WIRE -1792 336 -1840 336
WIRE -1664 336 -1728 336
WIRE -1120 336 -1232 336
WIRE -992 336 -1040 336
WIRE -864 336 -928 336
WIRE 80 352 48 352
WIRE 960 352 928 352
WIRE 1280 352 1280 224
WIRE 1280 352 960 352
WIRE -1664 416 -1664 336
WIRE -1632 416 -1664 416
WIRE -1520 416 -1552 416
WIRE -864 416 -864 336
WIRE -832 416 -864 416
WIRE -720 416 -752 416
WIRE 976 416 928 416
WIRE 976 464 928 464
WIRE -2032 496 -2032 336
WIRE -1920 496 -2032 496
WIRE -1792 496 -1840 496
WIRE -1664 496 -1664 416
WIRE -1664 496 -1728 496
WIRE -1232 496 -1232 336
WIRE -1120 496 -1232 496
WIRE -992 496 -1040 496
WIRE -864 496 -864 416
WIRE -864 496 -928 496
WIRE -2032 512 -2032 496
WIRE -1232 512 -1232 496
WIRE 976 528 928 528
WIRE 1440 576 1440 544
WIRE 976 592 928 592
WIRE -2032 624 -2032 592
WIRE -1760 624 -2032 624
WIRE -1232 624 -1232 592
WIRE -960 624 -1232 624
WIRE -2032 672 -2032 624
WIRE -1232 672 -1232 624
WIRE 1440 688 1440 656
WIRE -352 704 -352 288
WIRE -352 704 -480 704
WIRE -192 704 -352 704
WIRE 48 704 48 352
WIRE 48 704 -112 704
WIRE 768 704 768 656
WIRE 384 720 384 656
WIRE 48 752 48 704
WIRE -2032 784 -2032 752
WIRE -1232 784 -1232 752
WIRE 1440 800 1440 768
WIRE 768 816 768 784
FLAG -480 -144 V+
FLAG -480 704 V-
FLAG -720 416 G12
IOPIN -720 416 Out
FLAG -960 624 K12
IOPIN -960 624 In
FLAG 768 -144 High
FLAG 240 32 TjQ14
FLAG 1440 544 HS
FLAG 1440 800 0
FLAG 288 32 HS
FLAG -1232 784 0
FLAG -720 -80 G11
IOPIN -720 -80 Out
FLAG -960 128 K11
IOPIN -960 128 In
FLAG -1232 288 0
FLAG -1520 416 G14
IOPIN -1520 416 Out
FLAG -1760 624 K14
IOPIN -1760 624 In
FLAG -2032 784 0
FLAG -1520 -80 G13
IOPIN -1520 -80 Out
FLAG -1760 128 K13
IOPIN -1760 128 In
FLAG -2032 288 0
FLAG 976 240 G11
IOPIN 976 240 Out
FLAG 976 304 K11
IOPIN 976 304 Out
FLAG 976 528 G12
IOPIN 976 528 Out
FLAG 976 592 K12
IOPIN 976 592 Out
FLAG 144 32 K14
IOPIN 144 32 Out
FLAG 208 32 G14
IOPIN 208 32 Out
FLAG 544 32 K13
IOPIN 544 32 Out
FLAG 608 32 G13
IOPIN 608 32 Out
FLAG 960 352 PH
FLAG 464 32 TjQ13
FLAG 512 32 HS
FLAG 976 176 TjQ11
FLAG 976 128 HS
FLAG 976 464 TjQ12
FLAG 976 416 HS
FLAG 384 720 0
FLAG 768 816 0
FLAG 368 16 VD
FLAG 48 752 0
SYMBOL ind -80 -160 R90
WINDOW 0 5 56 VBottom 2
WINDOW 3 32 56 VTop 2
SYMATTR InstName Lbus
SYMATTR Value {Lbus}
SYMATTR SpiceLine Rser=0.1m Rpar=100
SYMBOL res -96 688 R90
WINDOW 0 0 56 VBottom 2
WINDOW 3 32 56 VTop 2
SYMATTR InstName Rlow
SYMATTR Value {Rshunt}
SYMBOL ind 1264 128 R0
SYMATTR InstName LoadInd
SYMATTR Value {L}
SYMATTR SpiceLine Rser=0.1m Rpar=1e6
SYMBOL res -1024 320 R90
WINDOW 0 0 56 VBottom 2
WINDOW 3 32 56 VTop 2
SYMATTR InstName R3
SYMATTR Value {Rg+RgIcOn}
SYMBOL voltage -352 192 R0
SYMATTR InstName V1
SYMATTR Value {Vbus}
SYMBOL res -1248 656 R0
SYMATTR InstName R1
SYMATTR Value 10Meg
SYMBOL res 1424 560 R0
SYMATTR InstName R6
SYMATTR Value 100m
SYMBOL voltage 1440 672 R0
SYMATTR InstName V2
SYMATTR Value 25
SYMBOL res -1024 480 R90
WINDOW 0 0 56 VBottom 2
WINDOW 3 32 56 VTop 2
SYMATTR InstName R5
SYMATTR Value {Rg+RgIcOff}
SYMBOL res -1024 -176 R90
WINDOW 0 0 56 VBottom 2
WINDOW 3 32 56 VTop 2
SYMATTR InstName R2
SYMATTR Value {Rg+RgIcOn}
SYMBOL res -1248 160 R0
SYMATTR InstName R4
SYMATTR Value 10Meg
SYMBOL diode -992 -144 R270
WINDOW 0 32 32 Invisible 2
WINDOW 3 0 32 VBottom 2
SYMATTR InstName D3
SYMATTR Value D1
SYMBOL res -1024 -16 R90
WINDOW 0 0 56 VBottom 2
WINDOW 3 32 56 VTop 2
SYMATTR InstName R8
SYMATTR Value {Rg+RgIcOff}
SYMBOL voltage -1232 0 R0
WINDOW 0 -107 8 Left 2
WINDOW 3 -92 102 Left 2
SYMATTR InstName Vfw
SYMATTR Value {Voff}
SYMBOL diode -928 -16 R90
WINDOW 0 0 32 Invisible 2
WINDOW 3 32 32 VTop 2
SYMATTR InstName D1
SYMATTR Value D1
SYMBOL diode -992 352 R270
WINDOW 0 32 32 Invisible 2
WINDOW 3 0 32 VBottom 2
SYMATTR InstName D2
SYMATTR Value D1
SYMBOL diode -928 480 R90
WINDOW 0 0 32 Invisible 2
WINDOW 3 32 32 VTop 2
SYMATTR InstName D4
SYMATTR Value D1
SYMBOL ind -736 -96 R90
WINDOW 0 5 56 Invisible 2
WINDOW 3 32 56 VTop 2
SYMATTR InstName L1
SYMATTR Value {Lg}
SYMATTR SpiceLine Rser=0
SYMBOL ind -736 400 R90
WINDOW 0 5 56 Invisible 2
WINDOW 3 32 56 VTop 2
SYMATTR InstName L2
SYMATTR Value {Lg}
SYMATTR SpiceLine Rser=0
SYMBOL res -1824 320 R90
WINDOW 0 0 56 VBottom 2
WINDOW 3 32 56 VTop 2
SYMATTR InstName R9
SYMATTR Value {Rg+RgIcOn}
SYMBOL voltage -2032 496 M0
WINDOW 123 0 0 Left 2
WINDOW 39 24 44 Left 2
WINDOW 3 -1448 60 Invisible 2
SYMATTR Value PWL(0u {Voff} {Start} {Voff} {RiseT1} {Von} {PulseT} {Von} {FallT} {Voff} {offT} {Voff} {RiseT2} {Von} {OnT} {Von} {FallT2} {Voff})
SYMATTR InstName Vactive
SYMBOL res -2048 656 R0
SYMATTR InstName R10
SYMATTR Value 10Meg
SYMBOL res -1824 480 R90
WINDOW 0 0 56 VBottom 2
WINDOW 3 32 56 VTop 2
SYMATTR InstName R11
SYMATTR Value {Rg+RgIcOff}
SYMBOL res -1824 -176 R90
WINDOW 0 0 56 VBottom 2
WINDOW 3 32 56 VTop 2
SYMATTR InstName R12
SYMATTR Value {Rg+RgIcOn}
SYMBOL res -2048 160 R0
SYMATTR InstName R13
SYMATTR Value 10Meg
SYMBOL diode -1792 -144 R270
WINDOW 0 32 32 Invisible 2
WINDOW 3 0 32 VBottom 2
SYMATTR InstName D5
SYMATTR Value D1
SYMBOL res -1824 -16 R90
WINDOW 0 0 56 VBottom 2
WINDOW 3 32 56 VTop 2
SYMATTR InstName R14
SYMATTR Value {Rg+RgIcOff}
SYMBOL voltage -2032 0 R0
WINDOW 0 -107 8 Left 2
WINDOW 3 -92 102 Left 2
SYMATTR InstName Von
SYMATTR Value {Von}
SYMBOL diode -1728 -16 R90
WINDOW 0 0 32 Invisible 2
WINDOW 3 32 32 VTop 2
SYMATTR InstName D6
SYMATTR Value D1
SYMBOL diode -1792 352 R270
WINDOW 0 32 32 Invisible 2
WINDOW 3 0 32 VBottom 2
SYMATTR InstName D7
SYMATTR Value D1
SYMBOL diode -1728 480 R90
WINDOW 0 0 32 Invisible 2
WINDOW 3 32 32 VTop 2
SYMATTR InstName D8
SYMATTR Value D1
SYMBOL ind -1536 -96 R90
WINDOW 0 5 56 Invisible 2
WINDOW 3 32 56 VTop 2
SYMATTR InstName L3
SYMATTR Value {Lg}
SYMATTR SpiceLine Rser=0
SYMBOL ind -1536 400 R90
WINDOW 0 5 56 Invisible 2
WINDOW 3 32 56 VTop 2
SYMATTR InstName L4
SYMATTR Value {Lg}
SYMATTR SpiceLine Rser=0
SYMBOL voltage -1232 496 R0
WINDOW 0 -107 8 Left 2
WINDOW 3 -92 102 Left 2
SYMATTR InstName Voff
SYMATTR Value {Voff}
SYMBOL res 752 688 R0
SYMATTR InstName R7
SYMATTR Value 1e6
SYMBOL Models\\CHB011M12GM4_LTspice 480 368 R0
SYMATTR InstName U1
TEXT -2864 824 Left 2 !.tran {tOff}
TEXT -2864 696 Left 2 !.param tOff = FallT2 + 1u
TEXT -2864 440 Left 2 !.param Start = 1u
TEXT -2864 504 Left 2 !.param PulseT = RiseT1+ChargePulseTime
TEXT -2864 536 Left 2 !.param FallT = PulseT + 10n
TEXT -2864 568 Left 2 !.param OffT = FallT + OffPulseTime
TEXT -2864 600 Left 2 !.param RiseT2 = OffT + 10n
TEXT -2864 632 Left 2 !.param OnT = RiseT2+  5u
TEXT -2864 664 Left 2 !.param FallT2 = OnT + 10n
TEXT -2864 472 Left 2 !.param RiseT1=Start + 10n
TEXT -2856 408 Left 2 ;Gate Drive Timing
TEXT -2240 -248 Left 4 ;Gate Drive
TEXT -2872 -248 Left 4 ;Adjustable Variables
TEXT -584 -248 Left 4 ;Double Pulse Test Bench
TEXT -2864 224 Left 2 !.param Lbus = 10n\n.param Rshunt = 2.5m
TEXT -2864 0 Left 2 !.param Von = 15\n.param Voff = -4\n.param Rg = 1\n.param RgIcOn = 0.5\n.param RgIcOff = 0.5\n.param Lg = 13n
TEXT -2864 -152 Left 2 !.param Vbus = 800\n.param L = 50u\n.param ChargePulseTime = 15u\n.param OffPulseTime = 5u
TEXT -2864 -184 Left 2 ;Operating Conditions
TEXT -2864 -32 Left 2 ;Gate Drive
TEXT -2864 200 Left 2 ;Misc Parameters
TEXT -2864 792 Left 2 !.TEMP 25
TEXT 1480 480 Right 2 ;Coolant
TEXT -2224 824 Left 2 !.model D1 D(Ron=1m Roff=1G Vfwd=1m Epsilon=1 RevEpsilon=1)
TEXT -2856 928 Left 2 ;Ensure you have the correct symbol and 'WS_FullBridge.lib' in this circuit's directory or a defined library\n \nRight-click the symbol to edit advanced features in the Spiceline\n \nLevel: Complexity of the body diode. 1 = simple body diode, 2 = full third quadrant (Vgs, Tj) with no reverse recovery, 3 = full third quadrant with reverse recovery\nRp: parallel resistance to package inductance. Set to 1m for increased speed, but less accuracy\nThermals: Complexity of the thermal model. Thermals=1 uses a closed-loop thermal network, Thermals=0 uses a static temp defind at the Tj pins or by the global temperature\nBPC: Presence of baseplate capacitance or not. BPC=0 disables baseplate capacitance, BPC=1 enables baseplate capacitance\n \nRead provided documentation for full explanation on how to properly use the models
TEXT -2864 1264 Left 2 ;If experiencing convergence problems, try the alternate solver
TEXT -1840 480 Left 2 ;N015
TEXT -2104 480 Left 2 ;N009
TEXT -1656 384 Left 2 ;N011
TEXT -2104 344 Left 2 ;N009
TEXT -1840 320 Left 2 ;N010
TEXT -1784 392 Left 2 ;(D7)
TEXT -1784 552 Left 2 ;(D8)
TEXT -1616 472 Left 2 ;(L4)
TEXT -2064 -176 Left 2 ;N001
TEXT -1840 -176 Left 2 ;N002
TEXT -1616 -24 Left 2 ;(L3)
TEXT -1656 -96 Left 2 ;N003
TEXT -1840 -16 Left 2 ;N007
TEXT -1784 56 Left 2 ;(D6)
TEXT -1784 -104 Left 2 ;(D5)
TEXT -2096 -24 Left 2 ;N001
TEXT -1304 -16 Left 2 ;N004
TEXT -1280 144 Left 2 ;K11
TEXT -1032 -16 Left 2 ;N008
TEXT -1296 -176 Left 2 ;N004
TEXT -1024 -184 Left 2 ;N005
TEXT -856 -112 Left 2 ;N006
TEXT -984 -104 Left 2 ;(D3)
TEXT -1296 336 Left 2 ;N012
TEXT -1040 320 Left 2 ;N013
TEXT -808 -24 Left 2 ;(L1)
TEXT -808 480 Left 2 ;(L2)
TEXT -856 384 Left 2 ;N014
TEXT -1296 480 Left 2 ;N012
TEXT -1288 640 Left 2 ;K12
TEXT -1040 480 Left 2 ;N016
TEXT 1368 664 Left 2 ;N017
TEXT -992 392 Left 2 ;(D2)
TEXT -984 544 Left 2 ;(D4)
TEXT 784 672 Left 2 ;N018
RECTANGLE Normal -624 848 -1408 -208 2
RECTANGLE Normal -2272 368 -2880 -208 2
RECTANGLE Normal 1568 848 -592 -208
RECTANGLE Normal 1552 832 1328 496 1
RECTANGLE Normal -2272 848 -2880 384 2
RECTANGLE Normal -1440 848 -2240 -208 2
RECTANGLE Normal 928 656 80 80
RECTANGLE Normal -736 1280 -2880 880 2
