Version 4.1
SHEET 1 3124 1172
WIRE -960 -144 -1104 -144
WIRE -736 -144 -880 -144
WIRE -352 -128 -480 -128
WIRE -144 -128 -352 -128
WIRE 208 -128 -64 -128
WIRE -1104 -112 -1104 -144
WIRE 960 -112 960 -128
WIRE 1152 -112 1152 -128
WIRE -1104 -16 -1104 -32
WIRE -736 -16 -1104 -16
WIRE 960 16 960 -32
WIRE 1152 16 1152 -32
WIRE 208 48 208 -128
WIRE -864 80 -912 80
WIRE -720 80 -784 80
WIRE -912 112 -912 80
WIRE 464 128 416 128
WIRE 960 160 960 96
WIRE 1152 160 1152 96
WIRE 464 176 416 176
WIRE -912 208 -912 192
WIRE -720 208 -912 208
WIRE -352 208 -352 -128
WIRE -32 208 -80 208
WIRE 48 208 -32 208
WIRE 464 224 416 224
WIRE -1104 240 -1104 -16
WIRE -912 240 -912 208
WIRE -32 272 -80 272
WIRE 48 272 -32 272
WIRE 480 304 416 304
WIRE 624 304 560 304
WIRE 752 304 624 304
WIRE 768 304 752 304
WIRE -1104 352 -1104 320
WIRE -912 352 -912 320
WIRE -912 352 -1104 352
WIRE 464 384 416 384
WIRE -1104 400 -1104 352
WIRE -32 432 -80 432
WIRE 48 432 -32 432
WIRE 464 432 416 432
WIRE 464 480 416 480
WIRE 752 480 752 304
WIRE -32 496 -80 496
WIRE 48 496 -32 496
WIRE 624 496 624 304
WIRE 320 576 320 560
WIRE 320 672 320 656
WIRE -352 720 -352 288
WIRE -352 720 -480 720
WIRE 208 720 208 560
WIRE 208 720 -352 720
WIRE 624 720 624 560
WIRE 624 720 208 720
WIRE 752 720 752 560
WIRE 752 720 624 720
WIRE 208 768 208 720
FLAG -480 -128 V+
FLAG -480 720 V-
FLAG 768 304 Vo
FLAG 208 768 0
FLAG -32 208 VG1
FLAG -32 432 VG2
FLAG -736 -144 G1
IOPIN -736 -144 Out
FLAG -720 80 G2
IOPIN -720 80 Out
FLAG -736 -16 K1
IOPIN -736 -16 In
FLAG -720 208 K2
IOPIN -720 208 In
FLAG -1104 400 0
FLAG -80 208 G1
IOPIN -80 208 Out
FLAG -80 432 G2
IOPIN -80 432 Out
FLAG 208 -128 High
FLAG -32 272 VK1
FLAG -32 496 VK2
FLAG -80 272 K1
IOPIN -80 272 In
FLAG -80 496 K2
IOPIN -80 496 In
FLAG 464 176 TjQ1
FLAG 464 432 TjQ2
FLAG 960 160 0
FLAG 1152 160 0
FLAG 960 -128 Tc1
FLAG 1152 -128 Tc2
FLAG 464 384 Tc2
FLAG 464 224 Tc1
FLAG 464 480 TjD2
FLAG 464 128 TjD1
FLAG 320 672 0
SYMBOL ind -48 -144 R90
WINDOW 0 5 56 VBottom 2
WINDOW 3 32 56 VTop 2
SYMATTR InstName Lbus
SYMATTR Value {Lbus}
SYMBOL res -1088 224 M0
SYMATTR InstName R1
SYMATTR Value 10Meg
SYMBOL res -928 224 R0
SYMATTR InstName R2
SYMATTR Value 10Meg
SYMBOL res -768 64 R90
WINDOW 0 0 56 VBottom 2
WINDOW 3 32 56 VTop 2
SYMATTR InstName R3
SYMATTR Value {Rg}
SYMBOL res -864 -160 R90
WINDOW 0 0 56 VBottom 2
WINDOW 3 32 56 VTop 2
SYMATTR InstName R4
SYMATTR Value {Rg}
SYMBOL voltage -352 192 R0
SYMATTR InstName V1
SYMATTR Value {Vbus}
SYMBOL voltage -1104 -128 R0
WINDOW 0 24 16 Invisible 2
WINDOW 3 -43 -259 Invisible 2
WINDOW 123 0 0 Left 0
WINDOW 39 0 0 Left 0
SYMATTR InstName V5
SYMATTR Value PULSE({Voff} {Von} {Td} {RT} {FT} {-Td + Tduty/Freq} {1/Freq} {NCycles})
SYMBOL voltage -912 96 R0
WINDOW 0 24 16 Invisible 2
WINDOW 3 -235 -437 Invisible 0
WINDOW 123 0 0 Left 0
WINDOW 39 0 0 Left 0
SYMATTR InstName V4
SYMATTR Value PULSE({Von} {Voff} 0 {RT} {FT} {Td + Tduty/Freq} {1/Freq} {NCycles})
SYMBOL ind 464 320 R270
WINDOW 0 32 56 Invisible 2
WINDOW 3 63 56 VBottom 2
SYMATTR InstName Lfilter
SYMATTR Value {Lfilter}
SYMBOL res 736 464 R0
WINDOW 3 39 90 Left 2
SYMATTR Value {Rload}
SYMATTR InstName Rload
SYMBOL cap 608 496 R0
SYMATTR InstName C1
SYMATTR Value {Cfilter}
SYMBOL voltage 960 0 R0
SYMATTR InstName V2
SYMATTR Value {Tcoolant}
SYMBOL voltage 1152 0 R0
SYMATTR InstName V3
SYMATTR Value {Tcoolant}
SYMBOL res 944 -128 R0
SYMATTR InstName R7
SYMATTR Value {RSA}
SYMBOL res 1136 -128 R0
SYMATTR InstName R8
SYMATTR Value {RSA}
SYMBOL res 304 560 R0
SYMATTR InstName RBPC
SYMATTR Value 1k
SYMBOL Models\\CAB003M09DM3_LTspice 64 560 R0
SYMATTR InstName U2
TEXT -1736 424 Left 2 !.tran {NCycles/Freq}
TEXT -1232 -232 Left 4 ;Gate Drive
TEXT -1744 -232 Left 4 ;Adjustable Variables
TEXT -600 -248 Left 4 ;Synchronous Buck Converter
TEXT -1736 200 Left 2 !.param RT = 10.00n\n.param FT = 10.00n\n.param Von = 15.00\n.param Voff = -5.00\n.param Rg = 3.30
TEXT -1728 -152 Left 2 !.param Vbus = 800.00\n.param Freq = 100.00k\n.param Td = 500.00n\n.param Tduty = 500.00m\n.param NCycles = 100\n.param Lbus = 3.50n\n.param Rload = 5\n.param Lfilter = 250.00u\n.param Cfilter = 250.00n\n.param Tcoolant=25\n.param RSA=100m
TEXT -1728 -184 Left 2 ;Operating Conditions
TEXT -1728 176 Left 2 ;Gate Drive
TEXT -1736 360 Left 2 !.TEMP 25
TEXT 912 -240 Left 4 ;Coolant
TEXT -568 864 Left 2 ;Ensure you have the correct symbol and 'WS_Halfbridge.lib' in this circuit's directory or a defined library\n \nRight-click the symbol to edit advanced features in the Spiceline\n \nLevel: Complexity of the body diode. 1 = simple body diode, 2 = full third quadrant (Vgs, Tj) with no reverse recovery, 3 = full third quadrant with reverse recovery\nRp: parallel resistance to package inductance. Set to 1m for increased speed, but less accuracy\nThermals: Complexity of the thermal model. Thermals=1 uses a closed-loop thermal network, Thermals=0 uses a static temp defind at the Tj pins or by the global temperature\nBPC: Presence of baseplate capacitance or not. BPC=0 disables baseplate capacitance, BPC=1 enables baseplate capacitance\n \nRead provided documentation for full explanation on how to properly use the models
TEXT 912 248 Left 2 ;RSA sets thermal resistance between the module case and the coolant\nVA sets the coolant temperature
TEXT -1160 -152 Left 2 ;N001
TEXT -1168 -88 Left 2 ;V5
TEXT -1168 -16 Left 2 ;VK1
TEXT -976 216 Left 2 ;VK2
TEXT -984 112 Left 2 ;V4
TEXT -936 64 Left 2 ;N004
TEXT 608 280 Left 2 ;V0
TEXT 1160 -16 Left 2 ;N003
TEXT 976 -8 Left 2 ;N002
TEXT -720 112 Left 2 ;VG2
TEXT -728 -112 Left 2 ;VG1
TEXT 352 272 Left 2 ;N005
TEXT 248 576 Left 2 ;N006
RECTANGLE Normal -1264 448 -1744 -208 2
RECTANGLE Normal 880 800 -592 -208
RECTANGLE Normal 1328 208 912 -208 1
RECTANGLE Normal -624 448 -1232 -208 2
RECTANGLE Normal 416 560 48 48
RECTANGLE Normal 1552 1152 -592 816 2
